32

C         -4.95867      -10.02206       -2.57214
C         -4.95278      -11.45749       -2.42994
C         -6.17317      -12.13787       -2.02898
C         -6.05533      -13.26994       -1.16125
C         -6.91188      -13.32975       -0.00000
C         -6.05533      -13.26994        1.16125
C         -6.17317      -12.13787        2.02898
C         -4.95278      -11.45749        2.42994
C         -4.95867      -10.02206        2.57214
C         -3.72770       -9.28101        2.40575
C         -3.74922       -7.93340        1.91012
C         -2.58448       -7.42142        1.20027
C         -3.02117       -6.64605       -0.00000
C         -2.58448       -7.42142       -1.20027
C         -3.74922       -7.93340       -1.91012
C         -3.72770       -9.28101       -2.40575
C         -6.17374       -7.86879        2.40575
C         -6.20003       -9.30536        2.57214
C         -7.44608      -10.01798        2.42994
C         -4.99591       -7.21362        1.91012
C         -7.42512      -11.41506        2.02898
C         -5.13490       -5.94894        1.20027
C         -8.46444      -11.87904        1.16125
C         -4.24507       -5.93944        0.00000
C         -8.08796      -12.65073        0.00000
C         -5.13490       -5.94894       -1.20027
C         -8.46444      -11.87904       -1.16125
C         -4.99591       -7.21362       -1.91012
C         -7.42512      -11.41506       -2.02898
C         -6.17374       -7.86879       -2.40575
C         -7.44608      -10.01798       -2.42994
C         -6.20003       -9.30536       -2.57214
