16

C         -4.95867      -10.02206       -2.57214
C         -4.95278      -11.45749       -2.42994
C         -6.17317      -12.13787       -2.02898
C         -6.05533      -13.26994       -1.16125
C         -6.91188      -13.32975       -0.00000
C         -6.05533      -13.26994        1.16125
C         -6.17317      -12.13787        2.02898
C         -4.95278      -11.45749        2.42994
C         -4.95867      -10.02206        2.57214
C         -3.72770       -9.28101        2.40575
C         -3.74922       -7.93340        1.91012
C         -2.58448       -7.42142        1.20027
C         -3.02117       -6.64605       -0.00000
C         -2.58448       -7.42142       -1.20027
C         -3.74922       -7.93340       -1.91012
C         -3.72770       -9.28101       -2.40575
