32

C          4.87446        2.97231        1.03142
C          4.63476        4.17733        3.16635
C          4.63476        4.17733        1.74535
C          3.95217        5.19891        1.03142
C          2.93060        5.88150        3.16635
C          2.93060        5.88150        1.74535
C          1.72557        6.12119        1.03142
C          0.52054        5.88150        3.16635
C          0.52054        5.88150        1.74535
C         -0.50103        5.19891        1.03142
C         -1.18362        4.17733        3.16635
C         -1.18362        4.17733        1.74535
C         -1.42332        2.97231        1.03142
C         -1.18362        1.76728        3.16635
C         -1.18362        1.76728        1.74535
C         -0.50103        0.74571        1.03142
C          0.52054        0.06311        3.16635
C          0.52054        0.06311        1.74535
C          1.72557       -0.17658        1.03142
C          2.93060        0.06311        3.16635
C          2.93060        0.06311        1.74535
C          3.95217        0.74571        1.03142
C          4.63476        1.76728        3.16635
C          4.63476        1.76728        1.74535
C          4.87446        2.97231        3.88028
C          3.95217        5.19891        3.88028
C          1.72557        6.12119        3.88028
C         -0.50103        5.19891        3.88028
C         -1.42332        2.97231        3.88028
C         -0.50103        0.74571        3.88028
C          1.72557       -0.17658        3.88028
C          3.95217        0.74571        3.88028
