96

C          4.87446        2.97231        1.03142
C          4.63476        4.17733        3.16635
C          4.63476        4.17733        1.74535
C          3.95217        5.19891        1.03142
C          2.93060        5.88150        3.16635
C          2.93060        5.88150        1.74535
C          1.72557        6.12119        1.03142
C          0.52054        5.88150        3.16635
C          0.52054        5.88150        1.74535
C         -0.50103        5.19891        1.03142
C         -1.18362        4.17733        3.16635
C         -1.18362        4.17733        1.74535
C         -1.42332        2.97231        1.03142
C         -1.18362        1.76728        3.16635
C         -1.18362        1.76728        1.74535
C         -0.50103        0.74571        1.03142
C          0.52054        0.06311        3.16635
C          0.52054        0.06311        1.74535
C          1.72557       -0.17658        1.03142
C          2.93060        0.06311        3.16635
C          2.93060        0.06311        1.74535
C          3.95217        0.74571        1.03142
C          4.63476        1.76728        3.16635
C          4.63476        1.76728        1.74535
C          4.87446        2.97231        5.30128
C          4.87446        2.97231        3.88028
C          4.63476        4.17733        7.43622
C          4.63476        4.17733        6.01522
C          3.95217        5.19891        5.30128
C          3.95217        5.19891        3.88028
C          2.93060        5.88150        7.43622
C          2.93060        5.88150        6.01522
C          1.72557        6.12119        5.30128
C          1.72557        6.12119        3.88028
C          0.52054        5.88150        7.43622
C          0.52054        5.88150        6.01522
C         -0.50103        5.19891        5.30128
C         -0.50103        5.19891        3.88028
C         -1.18362        4.17733        7.43622
C         -1.18362        4.17733        6.01522
C         -1.42332        2.97231        5.30128
C         -1.42332        2.97231        3.88028
C         -1.18362        1.76728        7.43622
C         -1.18362        1.76728        6.01522
C         -0.50103        0.74571        5.30128
C         -0.50103        0.74571        3.88028
C          0.52054        0.06311        7.43622
C          0.52054        0.06311        6.01522
C          1.72557       -0.17658        5.30128
C          1.72557       -0.17658        3.88028
C          2.93060        0.06311        7.43622
C          2.93060        0.06311        6.01522
C          3.95217        0.74571        5.30128
C          3.95217        0.74571        3.88028
C          4.63476        1.76728        7.43622
C          4.63476        1.76728        6.01522
C          4.87446        2.97231        9.57115
C          4.87446        2.97231        8.15015
C          4.63476        4.17733       11.70608
C          4.63476        4.17733       10.28508
C          3.95217        5.19891        9.57115
C          3.95217        5.19891        8.15015
C          2.93060        5.88150       11.70608
C          2.93060        5.88150       10.28508
C          1.72557        6.12119        9.57115
C          1.72557        6.12119        8.15015
C          0.52054        5.88150       11.70608
C          0.52054        5.88150       10.28508
C         -0.50103        5.19891        9.57115
C         -0.50103        5.19891        8.15015
C         -1.18362        4.17733       11.70608
C         -1.18362        4.17733       10.28508
C         -1.42332        2.97231        9.57115
C         -1.42332        2.97231        8.15015
C         -1.18362        1.76728       11.70608
C         -1.18362        1.76728       10.28508
C         -0.50103        0.74571        9.57115
C         -0.50103        0.74571        8.15015
C          0.52054        0.06311       11.70608
C          0.52054        0.06311       10.28508
C          1.72557       -0.17658        9.57115
C          1.72557       -0.17658        8.15015
C          2.93060        0.06311       11.70608
C          2.93060        0.06311       10.28508
C          3.95217        0.74571        9.57115
C          3.95217        0.74571        8.15015
C          4.63476        1.76728       11.70608
C          4.63476        1.76728       10.28508
C          4.87446        2.97231       12.42001
C          3.95217        5.19891       12.42001
C          1.72557        6.12119       12.42001
C         -0.50103        5.19891       12.42001
C         -1.42332        2.97231       12.42001
C         -0.50103        0.74571       12.42001
C          1.72557       -0.17658       12.42001
C          3.95217        0.74571       12.42001
