49

C 3.6512380 -11.4078487 6.2013959
C 4.7724950 -12.2513738 6.2312481
C 4.7551371 -13.5416898 5.6794611
C 3.5761110 -13.9709760 5.0614269
C 2.4400611 -13.1549258 4.9919926
C 2.4951943 -11.8815889 5.5724772
N 5.9690769 -11.7866076 6.8610302
C 6.2781163 -11.9568287 8.1993613
N 7.5143129 -11.3543816 8.3427093
C 7.9510051 -10.8300691 7.1289582
C 6.9915388 -11.0981236 6.2074346
C 8.2299688 -11.2916011 9.5804497
C 8.0142963 -10.1970243 10.4322038
C 8.7320488 -10.1537974 11.6318252
C 9.6317356 -11.1652328 11.9903131
C 9.8097679 -12.2433164 11.1145150
C 9.1153273 -12.3317069 9.9037147
C 10.3638379 -11.1131283 13.3046882
C 7.0234789 -9.1271083 10.0679889
C 9.2832423 -13.5080952 8.9833737
P 5.3915895 -12.7360976 9.5059661
C 5.9581377 -14.4356938 5.7908225
C 1.1932141 -13.6294009 4.2945488
C 3.6936293 -10.0582291 6.8614334
H 6.2090320 -14.6104476 6.8494127
H 4.3090619 -13.0796996 8.6334306
H 6.8453117 -13.9832204 5.3223365
H 5.7704346 -15.4048132 5.3120592
H 3.5423958 -14.9755913 4.6317724
H 8.9014574 -10.3182666 7.0425172
H 6.9323867 -10.8684027 5.1507416
H 1.6101227 -11.2405780 5.5453697
H 3.9118112 -10.1638149 7.9362771
H 2.7340803 -9.5382423 6.7495474
H 4.4845309 -9.4223829 6.4354295
H 1.2144266 -13.3569957 3.2269354
H 0.2929021 -13.1747609 4.7300585
H 1.0936571 -14.7220185 4.3511509
H 7.2739038 -8.6498643 9.1083924
H 6.9865596 -8.3500375 10.8415871
H 6.0166447 -9.5611630 9.9595177
H 8.5782873 -9.3080308 12.3071016
H 10.5048951 -13.0433581 11.3822790
H 8.3217771 -14.0300089 8.8527223
H 10.0136370 -14.2193001 9.3888072
H 9.6200032 -13.1974135 7.9826888
H 9.7803067 -11.6122099 14.0950328
H 10.5339314 -10.0772232 13.6286306
H 11.3348844 -11.6233885 13.2437569