105

Ga 7.8393437 3.5922895 3.8862173
Cl 8.0834890 2.0559870 5.8023518
P 7.8785285 5.2196088 5.6920111
C 5.9334954 3.3623308 3.1829709
C 9.4724626 3.1205243 2.7636526
Ga 8.1211182 3.7398991 7.6056093
C 7.7690815 6.9677702 5.6334033
C 5.5471251 4.6785394 2.5025938
C 5.8780308 2.2174096 2.1663018
C 4.9550660 3.0752697 4.3195333
C 10.7718704 3.5278330 3.4548278
C 9.4820049 1.6034496 2.5362493
C 9.3469633 3.8379859 1.4153308
C 10.0388130 3.8015749 8.3117463
C 6.5559479 3.1418887 8.7642893
N 8.0792746 7.7683288 4.5573587
N 7.3570174 7.7920489 6.6563735
H 5.5571710 5.5154311 3.2182160
H 4.5226231 4.6140581 2.0862047
H 6.2230385 4.9368712 1.6722071
H 6.5404742 2.3884258 1.3044590
H 4.8487273 2.1105852 1.7708779
H 6.1548831 1.2528109 2.6184034
H 5.1841700 2.1262379 4.8258443
H 3.9210850 3.0067777 3.9276036
H 4.9720282 3.8677338 5.0812934
H 10.8041388 4.6044882 3.6690464
H 11.6383421 3.2911306 2.8057973
H 10.9088961 2.9881749 4.4016245
H 9.5602046 1.0474738 3.4822350
H 10.3555406 1.3256040 1.9145066
H 8.5825383 1.2519638 2.0099068
H 8.4424190 3.5335179 0.8661089
H 10.2155282 3.5931557 0.7720558
H 9.3221805 4.9300840 1.5275438
C 11.0478025 3.5612287 7.1911513
C 10.2563353 5.1994093 8.8976569
C 10.2347615 2.7453952 9.4043020
C 6.7372800 1.6545156 9.0932076
C 5.2190298 3.3338676 8.0515794
C 6.5824774 3.9583327 10.0609026
C 8.9366797 7.4845966 3.4547564
C 7.6672607 9.1643783 4.8017058
C 6.5287867 7.4776355 7.7728725
C 7.5964561 9.2092742 6.3205390
H 10.9406111 2.5581341 6.7532190
H 12.0814307 3.6503285 7.5798081
H 10.9328904 4.2904506 6.3765447
H 10.1440911 5.9773462 8.1263844
H 11.2798024 5.2916756 9.3113048
H 9.5514596 5.4280680 9.7124857
H 9.5547821 2.8919814 10.2569457
H 11.2687122 2.7947974 9.7988891
H 10.0807411 1.7249531 9.0215544
H 6.7339197 1.0308806 8.1870285
H 5.9031701 1.3109477 9.7359105
H 7.6717040 1.4555703 9.6381015
H 5.0515285 4.3810135 7.7659907
H 4.3860886 3.0327962 8.7176302
H 5.1567968 2.7192293 7.1433724
H 7.5158707 3.8094545 10.6258560
H 5.7492373 3.6482779 10.7225175
H 6.4679932 5.0346277 9.8755217
C 8.4232837 7.6263625 2.1508378
C 10.3136020 7.2607685 3.6731147
H 6.6897433 9.3712477 4.3346866
H 8.4121509 9.8513706 4.3829769
C 5.1929089 7.0693974 7.5663810
C 7.0057077 7.7688887 9.0658577
H 8.5397975 9.5634099 6.7689787
H 6.7718586 9.8259746 6.6971199
C 9.3017929 7.4951548 1.0692792
C 6.9752716 7.9523863 1.9085422
C 11.1450597 7.1222641 2.5581575
C 10.8907323 7.2153823 5.0580289
C 4.6403871 6.8606205 6.1864677
C 4.3730536 6.9016620 8.6859741
C 6.1385594 7.6004858 10.1513566
C 8.3990336 8.2886591 9.2897223
C 10.6623352 7.2300589 1.2488435
H 8.9030411 7.5892709 0.0556684
H 6.3293828 7.5278263 2.6869395
H 6.6462132 7.5637445 0.9361021
H 6.8101398 9.0423344 1.8977731
H 12.2097275 6.9362755 2.7215667
H 10.6191334 8.1132977 5.6352974
H 11.9850093 7.1479572 5.0210441
H 10.5015398 6.3512945 5.6190694
H 4.8077661 7.7434747 5.5494777
H 3.5618962 6.6638752 6.2254861
H 5.1369465 6.0138594 5.6871634
H 3.3417947 6.5733950 8.5324073
C 4.8240310 7.1549850 9.9864227
H 6.5112363 7.8107218 11.1574263
H 9.1022320 7.8936890 8.5462115
H 8.7611772 8.0136576 10.2888275
H 8.4281488 9.3886805 9.2228609
C 11.5734667 7.0192284 0.0715037
C 3.9338043 6.9089514 11.1728759
H 11.2189342 7.5611849 -0.8158103
H 11.6180933 5.9495584 -0.1914672
H 12.5996428 7.3434600 0.2932631
H 4.0259268 5.8635006 11.5103657
H 2.8769237 7.0798883 10.9256978
H 4.2037246 7.5528561 12.0209982