704
i could write something here
C   17.846205   -3.439574    0.000000
C   17.438444   -5.120389    0.000000
C   17.914277   -0.853362    1.206831
C   17.752043   -2.552358    1.206831
C   16.154269   -8.328104    0.000000
C   15.289484   -9.825955    0.000000
C   16.948203   -5.865830    1.206831
C   16.313878   -7.450298    1.206831
C   16.939229   -3.264769    2.229933
C   16.552191   -4.860162    2.229933
C   16.209494   -0.772153    2.913548
C   16.062698   -2.309467    2.913548
C   13.153609  -12.541941    0.000000
C   11.901861  -13.735480    0.000000
C   14.609087  -10.403084    1.206831
C   13.554060  -11.744660    1.206831
C   15.333279   -7.904855    2.229933
C   14.512445   -9.326582    2.229933
C   15.335355   -5.307618    2.913548
C   14.761394   -6.741303    2.913548
C   14.749594   -2.842751    3.153601
C   14.412586   -4.231917    3.153601
C   13.798566   -0.657307    2.913548
C   13.673604   -1.965967    2.913548
C    9.087322  -15.739704    0.000000
C    7.550020  -16.532238    0.000000
C   11.086429  -14.097541    1.206831
C    9.696172  -15.087538    1.206831
C   12.485119  -11.904537    2.229933
C   11.296987  -13.037418    2.229933
C   13.218836   -9.413091    2.913548
C   12.264209  -10.626998    2.913548
C   13.351236   -6.883041    3.153601
C   12.636506   -8.120989    3.153601
C   13.054442   -4.518186    2.913548
C   12.565850   -5.738631    2.913548
C   12.559959   -2.420734    2.229933
C   12.272981   -3.603672    2.229933
C   12.093782   -0.576098    1.206831
C   11.984259   -1.723076    1.206831
C    4.284835  -17.662330    0.000000
C    2.586522  -17.989653    0.000000
C    6.665614  -16.649899    1.206831
C    5.052758  -17.208114    1.206831
C    8.625488  -14.939784    2.229933
C    7.166315  -15.692040    2.229933
C   10.031406  -12.755971    2.913548
C    8.773451  -13.651757    2.913548
C   10.871240  -10.365707    3.153601
C    9.836692  -11.352147    3.153601
C   11.252725   -8.013029    2.913548
C   10.440085   -9.046385    2.913548
C   11.369193   -5.861226    2.229933
C   10.760567   -6.915397    2.229933
C   11.441593   -3.959974    1.206831
C   11.013366   -5.029636    1.206831
C   11.652982   -2.245928   -0.000000
C   11.386727   -3.343445   -0.000000
C   12.093782   -0.576098   -1.206831
C   11.984259   -1.723076   -1.206831
C   -0.864784  -18.154059    0.000000
C   -2.586522  -17.989653    0.000000
C    1.704791  -17.853382    1.206831
C   -0.000000  -17.934591    1.206831
C    4.067072  -16.764698    2.229933
C    2.455070  -17.075386    2.229933
C    6.031292  -15.065438    2.913548
C    4.571921  -15.570532    2.913548
C    7.510522  -13.008605    3.153601
C    6.239967  -13.663622    3.153601
C    8.539380  -10.858705    2.913548
C    7.468527  -11.621255    2.913548
C    9.257362   -8.826877    2.229933
C    8.376396   -9.666876    2.229933
C    9.862475   -7.023037    1.206831
C    9.150235   -7.928724    1.206831
C   10.548203   -5.437977    0.000000
C    9.983528   -6.416024    0.000000
C   11.441593   -3.959974   -1.206831
C   11.013366   -5.029636   -1.206831
C   12.559959   -2.420734   -2.229933
C   12.272981   -3.603672   -2.229933
C   13.798566   -0.657307   -2.913548
C   13.673604   -1.965967   -2.913548
C   -5.944344  -17.175054    0.000000
C   -7.550020  -16.532238    0.000000
C   -3.394144  -17.610490    1.206831
C   -5.052758  -17.208114    1.206831
C   -0.820835  -17.231437    2.229933
C   -2.455070  -17.075386    2.229933
C    1.542558  -16.154393    2.913548
C   -0.000000  -16.227874    2.913548
C    3.541345  -14.597624    3.153601
C    2.137717  -14.868151    3.153601
C    5.134224  -12.824672    2.913548
C    3.891913  -13.254640    2.913548
C    6.395555  -11.077427    2.229933
C    5.313619  -11.635204    2.229933
C    7.484357   -9.517135    1.206831
C    6.545806  -10.185474    1.206831
C    8.588872   -8.189473   -0.000000
C    7.771522   -8.968814   -0.000000
C    9.862475   -7.023037   -1.206831
C    9.150235   -7.928724   -1.206831
C   11.369193   -5.861226   -2.229933
C   10.760567   -6.915397   -2.229933
C   13.054442   -4.518186   -2.913548
C   12.565850   -5.738631   -2.913548
C   14.749594   -2.842751   -3.153601
C   14.412586   -4.231917   -3.153601
C   16.209494   -0.772153   -2.913548
C   16.062698   -2.309467   -2.913548
C  -10.542328  -14.804629    0.000000
C  -11.901861  -13.735480    0.000000
C   -8.218105  -15.940900    1.206831
C   -9.696172  -15.087538    1.206831
C   -5.642242  -16.302187    2.229933
C   -7.166315  -15.692040    2.229933
C   -3.071145  -15.934616    2.913548
C   -4.571921  -15.570532    2.913548
C   -0.714730  -15.004030    3.153601
C   -2.137717  -14.868151    3.153601
C    1.313124  -13.751661    2.913548
C   -0.000000  -13.814213    2.913548
C    3.015619  -12.430549    2.229933
C    1.820365  -12.660916    2.229933
C    4.499902  -11.240211    1.206831
C    3.411076  -11.617057    1.206831
C    5.933721  -10.277506    0.000000
C    4.929914  -10.795005    0.000000
C    7.484357   -9.517135   -1.206831
C    6.545806  -10.185474   -1.206831
C    9.257362   -8.826877   -2.229933
C    8.376396   -9.666876   -2.229933
C   11.252725   -8.013029   -2.913548
C   10.440085   -9.046385   -2.913548
C   13.351236   -6.883041   -3.153601
C   12.636506   -8.120989   -3.153601
C   15.335355   -5.307618   -2.913548
C   14.761394   -6.741303   -2.913548
C   16.939229   -3.264769   -2.229933
C   16.552191   -4.860162   -2.229933
C   17.914277   -0.853362   -1.206831
C   17.752043   -2.552358   -1.206831
C  -14.286236  -11.234820    0.000000
C  -15.289484   -9.825955    0.000000
C  -12.376285  -12.979874    1.206831
C  -13.554060  -11.744660    1.206831
C  -10.006548  -14.052231    2.229933
C  -11.296987  -13.037418    2.229933
C   -7.436042  -14.423910    2.913548
C   -8.773451  -13.651757    2.913548
C   -4.912902  -14.194898    3.153601
C   -6.239967  -13.663622    3.153601
C   -2.614357  -13.564572    2.913548
C   -3.891913  -13.254640    2.913548
C   -0.608626  -12.776623    2.229933
C   -1.820365  -12.660916    2.229933
C    1.150891  -12.052672    1.206831
C   -0.000000  -12.107496    1.206831
C    2.797856  -11.532918   -0.000000
C    1.688913  -11.746649   -0.000000
C    4.499902  -11.240211   -1.206831
C    3.411076  -11.617057   -1.206831
C    6.395555  -11.077427   -2.229933
C    5.313619  -11.635204   -2.229933
C    8.539380  -10.858705   -2.913548
C    7.468527  -11.621255   -2.913548
C   10.871240  -10.365707   -3.153601
C    9.836692  -11.352147   -3.153601
C   13.218836   -9.413091   -2.913548
C   12.264209  -10.626998   -2.913548
C   15.333279   -7.904855   -2.229933
C   14.512445   -9.326582   -2.229933
C   16.948203   -5.865830   -1.206831
C   16.313878   -7.450298   -1.206831
C  -16.872757   -6.754833    0.000000
C  -17.438444   -5.120389    0.000000
C  -15.531812   -8.967296    1.206831
C  -16.313878   -7.450298    1.206831
C  -13.560183  -10.663846    2.229933
C  -14.512445   -9.326582    2.229933
C  -11.198516  -11.744665    2.913548
C  -12.264209  -10.626998    2.913548
C   -8.713060  -12.235781    3.153601
C   -9.836692  -11.352147    3.153601
C   -6.330039  -12.278562    2.913548
C   -7.468527  -11.621255    2.913548
C   -4.183563  -12.087610    2.229933
C   -5.313619  -11.635204    2.229933
C   -2.291359  -11.888698    1.206831
C   -3.411076  -11.617057    1.206831
C   -0.564676  -11.854000    0.000000
C   -1.688913  -11.746649    0.000000
C    1.150891  -12.052672   -1.206831
C   -0.000000  -12.107496   -1.206831
C    3.015619  -12.430549   -2.229933
C    1.820365  -12.660916   -2.229933
C    5.134224  -12.824672   -2.913548
C    3.891913  -13.254640   -2.913548
C    7.510522  -13.008605   -3.153601
C    6.239967  -13.663622   -3.153601
C   10.031406  -12.755971   -2.913548
C    8.773451  -13.651757   -2.913548
C   12.485119  -11.904537   -2.229933
C   11.296987  -13.037418   -2.229933
C   14.609087  -10.403084   -1.206831
C   13.554060  -11.744660   -1.206831
C  -18.092349   -1.727610    0.000000
C  -18.174645    0.000000    0.000000
C  -17.429043   -4.228240    1.206831
C  -17.752043   -2.552358    1.206831
C  -16.015253   -6.411540    2.229933
C  -16.552191   -4.860162    2.229933
C  -14.053752   -8.113937    2.913548
C  -14.761394   -6.741303    2.913548
C  -11.807338   -9.285393    3.153601
C  -12.636506   -8.120989    3.153601
C   -9.532898   -9.997816    2.913548
C  -10.440085   -9.046385    2.913548
C   -7.419572  -10.419331    2.229933
C   -8.376396   -9.666876    2.229933
C   -5.547976  -10.761572    1.206831
C   -6.545806  -10.185474    1.206831
C   -3.881460  -11.214743    0.000000
C   -4.929914  -10.795005    0.000000
C   -2.291359  -11.888698   -1.206831
C   -3.411076  -11.617057   -1.206831
C   -0.608626  -12.776623   -2.229933
C   -1.820365  -12.660916   -2.229933
C    1.313124  -13.751661   -2.913548
C   -0.000000  -13.814213   -2.913548
C    3.541345  -14.597624   -3.153601
C    2.137717  -14.868151   -3.153601
C    6.031292  -15.065438   -2.913548
C    4.571921  -15.570532   -2.913548
C    8.625488  -14.939784   -2.229933
C    7.166315  -15.692040   -2.229933
C   11.086429  -14.097541   -1.206831
C    9.696172  -15.087538   -1.206831
C  -17.846205    3.439574    0.000000
C  -17.438444    5.120389    0.000000
C  -17.914277    0.853362    1.206831
C  -17.752043    2.552358    1.206831
C  -17.172863   -1.639810    2.229933
C  -17.250976    0.000000    2.229933
C  -15.770436   -3.825866    2.913548
C  -16.062698   -2.309467    2.913548
C  -13.945055   -5.582758    3.153601
C  -14.412586   -4.231917    3.153601
C  -11.963459   -6.907106    2.913548
C  -12.565850   -5.738631    2.913548
C  -10.054492   -7.906940    2.229933
C  -10.760567   -6.915397    2.229933
C   -8.355129   -8.762607    1.206831
C   -9.150235   -7.928724    1.206831
C   -6.883792   -9.666933   -0.000000
C   -7.771522   -8.968814   -0.000000
C   -5.547976  -10.761572   -1.206831
C   -6.545806  -10.185474   -1.206831
C   -4.183563  -12.087610   -2.229933
C   -5.313619  -11.635204   -2.229933
C   -2.614357  -13.564572   -2.913548
C   -3.891913  -13.254640   -2.913548
C   -0.714730  -15.004030   -3.153601
C   -2.137717  -14.868151   -3.153601
C    1.542558  -16.154393   -2.913548
C   -0.000000  -16.227874   -2.913548
C    4.067072  -16.764698   -2.229933
C    2.455070  -17.075386   -2.229933
C    6.665614  -16.649899   -1.206831
C    5.052758  -17.208114   -1.206831
C  -16.154269    8.328104    0.000000
C  -15.289484    9.825955    0.000000
C  -16.948203    5.865830    1.206831
C  -16.313878    7.450298    1.206831
C  -16.939229    3.264769    2.229933
C  -16.552191    4.860162    2.229933
C  -16.209494    0.772153    2.913548
C  -16.062698    2.309467    2.913548
C  -14.953027   -1.427841    3.153601
C  -15.021044    0.000000    3.153601
C  -13.424812   -3.256824    2.913548
C  -13.673604   -1.965967    2.913548
C  -11.874857   -4.753976    2.229933
C  -12.272981   -3.603672    2.229933
C  -10.485399   -6.053748    1.206831
C  -11.013366   -5.029636    1.206831
C   -9.328440   -7.335966    0.000000
C   -9.983528   -6.416024    0.000000
C   -8.355129   -8.762607   -1.206831
C   -9.150235   -7.928724   -1.206831
C   -7.419572  -10.419331   -2.229933
C   -8.376396   -9.666876   -2.229933
C   -6.330039  -12.278562   -2.913548
C   -7.468527  -11.621255   -2.913548
C   -4.912902  -14.194898   -3.153601
C   -6.239967  -13.663622   -3.153601
C   -3.071145  -15.934616   -2.913548
C   -4.571921  -15.570532   -2.913548
C   -0.820835  -17.231437   -2.229933
C   -2.455070  -17.075386   -2.229933
C    1.704791  -17.853382   -1.206831
C   -0.000000  -17.934591   -1.206831
C  -13.153609   12.541941    0.000000
C  -11.901861   13.735480    0.000000
C  -14.609087   10.403084    1.206831
C  -13.554060   11.744660    1.206831
C  -15.333279    7.904855    2.229933
C  -14.512445    9.326582    2.229933
C  -15.335355    5.307618    2.913548
C  -14.761394    6.741303    2.913548
C  -14.749594    2.842751    3.153601
C  -14.412586    4.231917    3.153601
C  -13.798566    0.657307    2.913548
C  -13.673604    1.965967    2.913548
C  -12.733192   -1.215872    2.229933
C  -12.791111    0.000000    2.229933
C  -11.766205   -2.854450    1.206831
C  -11.984259   -1.723076    1.206831
C  -11.017353   -4.410683   -0.000000
C  -11.386727   -3.343445   -0.000000
C  -10.485399   -6.053748   -1.206831
C  -11.013366   -5.029636   -1.206831
C  -10.054492   -7.906940   -2.229933
C  -10.760567   -6.915397   -2.229933
C   -9.532898   -9.997816   -2.913548
C  -10.440085   -9.046385   -2.913548
C   -8.713060  -12.235781   -3.153601
C   -9.836692  -11.352147   -3.153601
C   -7.436042  -14.423910   -2.913548
C   -8.773451  -13.651757   -2.913548
C   -5.642242  -16.302187   -2.229933
C   -7.166315  -15.692040   -2.229933
C   -3.394144  -17.610490   -1.206831
C   -5.052758  -17.208114   -1.206831
C   -9.087322   15.739704    0.000000
C   -7.550020   16.532238    0.000000
C  -11.086429   14.097541    1.206831
C   -9.696172   15.087538    1.206831
C  -12.485119   11.904537    2.229933
C  -11.296987   13.037418    2.229933
C  -13.218836    9.413091    2.913548
C  -12.264209   10.626998    2.913548
C  -13.351236    6.883041    3.153601
C  -12.636506    8.120989    3.153601
C  -13.054442    4.518186    2.913548
C  -12.565850    5.738631    2.913548
C  -12.559959    2.420734    2.229933
C  -12.272981    3.603672    2.229933
C  -12.093782    0.576098    1.206831
C  -11.984259    1.723076    1.206831
C  -11.813706   -1.128072    0.000000
C  -11.867442    0.000000    0.000000
C  -11.766205   -2.854450   -1.206831
C  -11.984259   -1.723076   -1.206831
C  -11.874857   -4.753976   -2.229933
C  -12.272981   -3.603672   -2.229933
C  -11.963459   -6.907106   -2.913548
C  -12.565850   -5.738631   -2.913548
C  -11.807338   -9.285393   -3.153601
C  -12.636506   -8.120989   -3.153601
C  -11.198516  -11.744665   -2.913548
C  -12.264209  -10.626998   -2.913548
C  -10.006548  -14.052231   -2.229933
C  -11.296987  -13.037418   -2.229933
C   -8.218105  -15.940900   -1.206831
C   -9.696172  -15.087538   -1.206831
C   -4.284835   17.662330    0.000000
C   -2.586522   17.989653    0.000000
C   -6.665614   16.649899    1.206831
C   -5.052758   17.208114    1.206831
C   -8.625488   14.939784    2.229933
C   -7.166315   15.692040    2.229933
C  -10.031406   12.755971    2.913548
C   -8.773451   13.651757    2.913548
C  -10.871240   10.365707    3.153601
C   -9.836692   11.352147    3.153601
C  -11.252725    8.013029    2.913548
C  -10.440085    9.046385    2.913548
C  -11.369193    5.861226    2.229933
C  -10.760567    6.915397    2.229933
C  -11.441593    3.959974    1.206831
C  -11.013366    5.029636    1.206831
C  -11.652982    2.245928    0.000000
C  -11.386727    3.343445    0.000000
C  -12.093782    0.576098   -1.206831
C  -11.984259    1.723076   -1.206831
C  -12.733192   -1.215872   -2.229933
C  -12.791111    0.000000   -2.229933
C  -13.424812   -3.256824   -2.913548
C  -13.673604   -1.965967   -2.913548
C  -13.945055   -5.582758   -3.153601
C  -14.412586   -4.231917   -3.153601
C  -14.053752   -8.113937   -2.913548
C  -14.761394   -6.741303   -2.913548
C  -13.560183  -10.663846   -2.229933
C  -14.512445   -9.326582   -2.229933
C  -12.376285  -12.979874   -1.206831
C  -13.554060  -11.744660   -1.206831
C    0.864784   18.154059    0.000000
C    2.586522   17.989653    0.000000
C   -1.704791   17.853382    1.206831
C    0.000000   17.934591    1.206831
C   -4.067072   16.764698    2.229933
C   -2.455070   17.075386    2.229933
C   -6.031292   15.065438    2.913548
C   -4.571921   15.570532    2.913548
C   -7.510522   13.008605    3.153601
C   -6.239967   13.663622    3.153601
C   -8.539380   10.858705    2.913548
C   -7.468527   11.621255    2.913548
C   -9.257362    8.826877    2.229933
C   -8.376396    9.666876    2.229933
C   -9.862475    7.023037    1.206831
C   -9.150235    7.928724    1.206831
C  -10.548203    5.437977    0.000000
C   -9.983528    6.416024    0.000000
C  -11.441593    3.959974   -1.206831
C  -11.013366    5.029636   -1.206831
C  -12.559959    2.420734   -2.229933
C  -12.272981    3.603672   -2.229933
C  -13.798566    0.657307   -2.913548
C  -13.673604    1.965967   -2.913548
C  -14.953027   -1.427841   -3.153601
C  -15.021044    0.000000   -3.153601
C  -15.770436   -3.825866   -2.913548
C  -16.062698   -2.309467   -2.913548
C  -16.015253   -6.411540   -2.229933
C  -16.552191   -4.860162   -2.229933
C  -15.531812   -8.967296   -1.206831
C  -16.313878   -7.450298   -1.206831
C    5.944344   17.175054    0.000000
C    7.550020   16.532238    0.000000
C    3.394144   17.610490    1.206831
C    5.052758   17.208114    1.206831
C    0.820835   17.231437    2.229933
C    2.455070   17.075386    2.229933
C   -1.542558   16.154393    2.913548
C    0.000000   16.227874    2.913548
C   -3.541345   14.597624    3.153601
C   -2.137717   14.868151    3.153601
C   -5.134224   12.824672    2.913548
C   -3.891913   13.254640    2.913548
C   -6.395555   11.077427    2.229933
C   -5.313619   11.635204    2.229933
C   -7.484357    9.517135    1.206831
C   -6.545806   10.185474    1.206831
C   -8.588872    8.189473    0.000000
C   -7.771522    8.968814    0.000000
C   -9.862475    7.023037   -1.206831
C   -9.150235    7.928724   -1.206831
C  -11.369193    5.861226   -2.229933
C  -10.760567    6.915397   -2.229933
C  -13.054442    4.518186   -2.913548
C  -12.565850    5.738631   -2.913548
C  -14.749594    2.842751   -3.153601
C  -14.412586    4.231917   -3.153601
C  -16.209494    0.772153   -2.913548
C  -16.062698    2.309467   -2.913548
C  -17.172863   -1.639810   -2.229933
C  -17.250976    0.000000   -2.229933
C  -17.429043   -4.228240   -1.206831
C  -17.752043   -2.552358   -1.206831
C   10.542328   14.804629    0.000000
C   11.901861   13.735480    0.000000
C    8.218105   15.940900    1.206831
C    9.696172   15.087538    1.206831
C    5.642242   16.302187    2.229933
C    7.166315   15.692040    2.229933
C    3.071145   15.934616    2.913548
C    4.571921   15.570532    2.913548
C    0.714730   15.004030    3.153601
C    2.137717   14.868151    3.153601
C   -1.313124   13.751661    2.913548
C    0.000000   13.814213    2.913548
C   -3.015619   12.430549    2.229933
C   -1.820365   12.660916    2.229933
C   -4.499902   11.240211    1.206831
C   -3.411076   11.617057    1.206831
C   -5.933721   10.277506    0.000000
C   -4.929914   10.795005    0.000000
C   -7.484357    9.517135   -1.206831
C   -6.545806   10.185474   -1.206831
C   -9.257362    8.826877   -2.229933
C   -8.376396    9.666876   -2.229933
C  -11.252725    8.013029   -2.913548
C  -10.440085    9.046385   -2.913548
C  -13.351236    6.883041   -3.153601
C  -12.636506    8.120989   -3.153601
C  -15.335355    5.307618   -2.913548
C  -14.761394    6.741303   -2.913548
C  -16.939229    3.264769   -2.229933
C  -16.552191    4.860162   -2.229933
C  -17.914277    0.853362   -1.206831
C  -17.752043    2.552358   -1.206831
C   14.286236   11.234820    0.000000
C   15.289484    9.825955    0.000000
C   12.376285   12.979874    1.206831
C   13.554060   11.744660    1.206831
C   10.006548   14.052231    2.229933
C   11.296987   13.037418    2.229933
C    7.436042   14.423910    2.913548
C    8.773451   13.651757    2.913548
C    4.912902   14.194898    3.153601
C    6.239967   13.663622    3.153601
C    2.614357   13.564572    2.913548
C    3.891913   13.254640    2.913548
C    0.608626   12.776623    2.229933
C    1.820365   12.660916    2.229933
C   -1.150891   12.052672    1.206831
C    0.000000   12.107496    1.206831
C   -2.797856   11.532918    0.000000
C   -1.688913   11.746649    0.000000
C   -4.499902   11.240211   -1.206831
C   -3.411076   11.617057   -1.206831
C   -6.395555   11.077427   -2.229933
C   -5.313619   11.635204   -2.229933
C   -8.539380   10.858705   -2.913548
C   -7.468527   11.621255   -2.913548
C  -10.871240   10.365707   -3.153601
C   -9.836692   11.352147   -3.153601
C  -13.218836    9.413091   -2.913548
C  -12.264209   10.626998   -2.913548
C  -15.333279    7.904855   -2.229933
C  -14.512445    9.326582   -2.229933
C  -16.948203    5.865830   -1.206831
C  -16.313878    7.450298   -1.206831
C   16.872757    6.754833    0.000000
C   17.438444    5.120389    0.000000
C   15.531812    8.967296    1.206831
C   16.313878    7.450298    1.206831
C   13.560183   10.663846    2.229933
C   14.512445    9.326582    2.229933
C   11.198516   11.744665    2.913548
C   12.264209   10.626998    2.913548
C    8.713060   12.235781    3.153601
C    9.836692   11.352147    3.153601
C    6.330039   12.278562    2.913548
C    7.468527   11.621255    2.913548
C    4.183563   12.087610    2.229933
C    5.313619   11.635204    2.229933
C    2.291359   11.888698    1.206831
C    3.411076   11.617057    1.206831
C    0.564676   11.854000    0.000000
C    1.688913   11.746649    0.000000
C   -1.150891   12.052672   -1.206831
C    0.000000   12.107496   -1.206831
C   -3.015619   12.430549   -2.229933
C   -1.820365   12.660916   -2.229933
C   -5.134224   12.824672   -2.913548
C   -3.891913   13.254640   -2.913548
C   -7.510522   13.008605   -3.153601
C   -6.239967   13.663622   -3.153601
C  -10.031406   12.755971   -2.913548
C   -8.773451   13.651757   -2.913548
C  -12.485119   11.904537   -2.229933
C  -11.296987   13.037418   -2.229933
C  -14.609087   10.403084   -1.206831
C  -13.554060   11.744660   -1.206831
C   18.092349    1.727610    0.000000
C   18.174645    0.000000    0.000000
C   17.429043    4.228240    1.206831
C   17.752043    2.552358    1.206831
C   16.015253    6.411540    2.229933
C   16.552191    4.860162    2.229933
C   14.053752    8.113937    2.913548
C   14.761394    6.741303    2.913548
C   11.807338    9.285393    3.153601
C   12.636506    8.120989    3.153601
C    9.532898    9.997816    2.913548
C   10.440085    9.046385    2.913548
C    7.419572   10.419331    2.229933
C    8.376396    9.666876    2.229933
C    5.547976   10.761572    1.206831
C    6.545806   10.185474    1.206831
C    3.881460   11.214743    0.000000
C    4.929914   10.795005    0.000000
C    2.291359   11.888698   -1.206831
C    3.411076   11.617057   -1.206831
C    0.608626   12.776623   -2.229933
C    1.820365   12.660916   -2.229933
C   -1.313124   13.751661   -2.913548
C    0.000000   13.814213   -2.913548
C   -3.541345   14.597624   -3.153601
C   -2.137717   14.868151   -3.153601
C   -6.031292   15.065438   -2.913548
C   -4.571921   15.570532   -2.913548
C   -8.625488   14.939784   -2.229933
C   -7.166315   15.692040   -2.229933
C  -11.086429   14.097541   -1.206831
C   -9.696172   15.087538   -1.206831
C   17.172863    1.639810    2.229933
C   17.250976    0.000000    2.229933
C   15.770436    3.825866    2.913548
C   16.062698    2.309467    2.913548
C   13.945055    5.582758    3.153601
C   14.412586    4.231917    3.153601
C   11.963459    6.907106    2.913548
C   12.565850    5.738631    2.913548
C   10.054492    7.906940    2.229933
C   10.760567    6.915397    2.229933
C    8.355129    8.762607    1.206831
C    9.150235    7.928724    1.206831
C    6.883792    9.666933    0.000000
C    7.771522    8.968814    0.000000
C    5.547976   10.761572   -1.206831
C    6.545806   10.185474   -1.206831
C    4.183563   12.087610   -2.229933
C    5.313619   11.635204   -2.229933
C    2.614357   13.564572   -2.913548
C    3.891913   13.254640   -2.913548
C    0.714730   15.004030   -3.153601
C    2.137717   14.868151   -3.153601
C   -1.542558   16.154393   -2.913548
C    0.000000   16.227874   -2.913548
C   -4.067072   16.764698   -2.229933
C   -2.455070   17.075386   -2.229933
C   -6.665614   16.649899   -1.206831
C   -5.052758   17.208114   -1.206831
C   14.953027    1.427841    3.153601
C   15.021044    0.000000    3.153601
C   13.424812    3.256824    2.913548
C   13.673604    1.965967    2.913548
C   11.874857    4.753976    2.229933
C   12.272981    3.603672    2.229933
C   10.485399    6.053748    1.206831
C   11.013366    5.029636    1.206831
C    9.328440    7.335966    0.000000
C    9.983528    6.416024    0.000000
C    8.355129    8.762607   -1.206831
C    9.150235    7.928724   -1.206831
C    7.419572   10.419331   -2.229933
C    8.376396    9.666876   -2.229933
C    6.330039   12.278562   -2.913548
C    7.468527   11.621255   -2.913548
C    4.912902   14.194898   -3.153601
C    6.239967   13.663622   -3.153601
C    3.071145   15.934616   -2.913548
C    4.571921   15.570532   -2.913548
C    0.820835   17.231437   -2.229933
C    2.455070   17.075386   -2.229933
C   -1.704791   17.853382   -1.206831
C    0.000000   17.934591   -1.206831
C   12.733192    1.215872    2.229933
C   12.791111    0.000000    2.229933
C   11.766205    2.854450    1.206831
C   11.984259    1.723076    1.206831
C   11.017353    4.410683    0.000000
C   11.386727    3.343445    0.000000
C   10.485399    6.053748   -1.206831
C   11.013366    5.029636   -1.206831
C   10.054492    7.906940   -2.229933
C   10.760567    6.915397   -2.229933
C    9.532898    9.997816   -2.913548
C   10.440085    9.046385   -2.913548
C    8.713060   12.235781   -3.153601
C    9.836692   11.352147   -3.153601
C    7.436042   14.423910   -2.913548
C    8.773451   13.651757   -2.913548
C    5.642242   16.302187   -2.229933
C    7.166315   15.692040   -2.229933
C    3.394144   17.610490   -1.206831
C    5.052758   17.208114   -1.206831
C   11.813706    1.128072    0.000000
C   11.867442    0.000000    0.000000
C   11.766205    2.854450   -1.206831
C   11.984259    1.723076   -1.206831
C   11.874857    4.753976   -2.229933
C   12.272981    3.603672   -2.229933
C   11.963459    6.907106   -2.913548
C   12.565850    5.738631   -2.913548
C   11.807338    9.285393   -3.153601
C   12.636506    8.120989   -3.153601
C   11.198516   11.744665   -2.913548
C   12.264209   10.626998   -2.913548
C   10.006548   14.052231   -2.229933
C   11.296987   13.037418   -2.229933
C    8.218105   15.940900   -1.206831
C    9.696172   15.087538   -1.206831
C   12.733192    1.215872   -2.229933
C   12.791111    0.000000   -2.229933
C   13.424812    3.256824   -2.913548
C   13.673604    1.965967   -2.913548
C   13.945055    5.582758   -3.153601
C   14.412586    4.231917   -3.153601
C   14.053752    8.113937   -2.913548
C   14.761394    6.741303   -2.913548
C   13.560183   10.663846   -2.229933
C   14.512445    9.326582   -2.229933
C   12.376285   12.979874   -1.206831
C   13.554060   11.744660   -1.206831
C   14.953027    1.427841   -3.153601
C   15.021044    0.000000   -3.153601
C   15.770436    3.825866   -2.913548
C   16.062698    2.309467   -2.913548
C   16.015253    6.411540   -2.229933
C   16.552191    4.860162   -2.229933
C   15.531812    8.967296   -1.206831
C   16.313878    7.450298   -1.206831
C   17.172863    1.639810   -2.229933
C   17.250976    0.000000   -2.229933
C   17.429043    4.228240   -1.206831
C   17.752043    2.552358   -1.206831
