704
i could write something here
C   19.931932   -1.425560    0.706860
C   19.871562   -2.857099   -0.000000
C   19.226873   -1.375133    1.931178
C   19.526175   -4.247659    0.706860
C   19.262691   -5.656036   -0.000000
C   18.519912   -2.662761    2.365201
C   18.835469   -4.097405    1.931178
C   16.595555   -1.186938    2.638039
C   17.168262   -2.468423    2.731099
C   15.374356   -1.099596    1.931178
C   18.722922   -6.983289    0.706860
C   18.261686   -8.339833   -0.000000
C   17.952456   -5.271317    2.365201
C   18.060629   -6.736266    1.931178
C   16.257717   -3.536650    2.638039
C   16.642220   -4.886597    2.731099
C   14.827135   -2.131820    1.365549
C   15.061379   -3.276402    1.931178
C   14.669297   -1.049169   -0.706860
C   14.464962   -2.079748    0.000000
C   15.374356   -1.099596   -1.931178
C   17.538524   -9.576759    0.706860
C   16.888927  -10.853854   -0.000000
C   17.019539   -7.772563    2.365201
C   16.918128   -9.237997    1.931178
C   15.588920   -5.814366    2.638039
C   15.777391   -7.205293    2.731099
C   14.372827   -4.220243    1.365549
C   14.441795   -5.386511    1.931178
C   14.370672   -3.126148   -0.706860
C   14.021750   -4.117157    0.000000
C   15.816612   -2.274085   -2.365201
C   15.061379   -3.276402   -1.931178
C   18.005674   -1.287791   -2.638039
C   17.168262   -2.468423   -2.731099
C   19.226873   -1.375133   -1.931178
C   15.997092  -11.975273    0.706860
C   15.172357  -13.146922   -0.000000
C   15.740153  -10.115582    2.365201
C   15.431221  -11.551668    1.931178
C   14.602776   -7.973719    2.638039
C   14.591380   -9.377311    2.731099
C   13.625929   -6.222753    1.365549
C   13.528218   -7.386966    1.931178
C   13.779502   -5.139489   -0.706860
C   13.293097   -6.070754    0.000000
C   15.331985   -4.501877   -2.365201
C   14.441795   -5.386511   -1.931178
C   17.639130   -3.837158   -2.638039
C   16.642220   -4.886597   -2.731099
C   19.509389   -2.805027   -1.365549
C   18.835469   -4.097405   -1.931178
C   14.130006  -14.130006    0.706860
C   13.146922  -15.172357   -0.000000
C   14.140344  -12.252678    2.365201
C   13.630180  -13.630180    1.931178
C   13.319362   -9.970750    2.638039
C   13.108331  -11.358433    2.731099
C   12.601647   -8.098586    1.365549
C   12.339245   -9.237043    1.931178
C   12.907821   -7.048204   -0.706860
C   12.293834   -7.900767    0.000000
C   14.535244   -6.638024   -2.365201
C   13.528218   -7.386966   -1.931178
C   16.913505   -6.308411   -2.638039
C   15.777391   -7.205293   -2.731099
C   18.911614   -5.552951   -1.365549
C   18.060629   -6.736266   -1.931178
C   11.975273  -15.997092    0.706860
C   10.853854  -16.888927   -0.000000
C   12.252678  -14.140344    2.365201
C   11.551668  -15.431221    1.931178
C   11.764805  -11.764805    2.638039
C   11.358433  -13.108331    2.731099
C   11.320831   -9.809556    1.365549
C   10.899081  -10.899081    1.931178
C   11.773374   -8.813438   -0.706860
C   11.044304   -9.569944    0.000000
C   13.442607   -8.639039   -2.365201
C   12.339245   -9.237043   -1.931178
C   15.843569   -8.651243   -2.638039
C   14.591380   -9.377311   -2.731099
C   17.928854   -8.187833   -1.365549
C   16.918128   -9.237997   -1.931178
C    9.576759  -17.538524    0.706860
C    8.339833  -18.261686   -0.000000
C   10.115582  -15.740153    2.365201
C    9.237997  -16.918128    1.931178
C    9.970750  -13.319362    2.638039
C    9.377311  -14.591380    2.731099
C    9.809556  -11.320831    1.365549
C    9.237043  -12.339245    1.931178
C   10.399255  -10.399255   -0.706860
C    9.569944  -11.044304    0.000000
C   12.076317  -10.464188   -2.365201
C   10.899081  -10.899081   -1.931178
C   14.451104  -10.817961   -2.638039
C   13.108331  -11.358433   -2.731099
C   16.581114  -10.656035   -1.365549
C   15.431221  -11.551668   -1.931178
C    6.983289  -18.722922    0.706860
C    5.656036  -19.262691   -0.000000
C    7.772563  -17.019539    2.365201
C    6.736266  -18.060629    1.931178
C    7.973719  -14.602776    2.638039
C    7.205293  -15.777391    2.731099
C    8.098586  -12.601647    1.365549
C    7.386966  -13.528218    1.931178
C    8.813438  -11.773374   -0.706860
C    7.900767  -12.293834    0.000000
C   10.464188  -12.076317   -2.365201
C    9.237043  -12.339245   -1.931178
C   12.764456  -12.764456   -2.638039
C   11.358433  -13.108331   -2.731099
C   14.895830  -12.907310   -1.365549
C   13.630180  -13.630180   -1.931178
C    4.247659  -19.526175    0.706860
C    2.857099  -19.871562   -0.000000
C    5.271317  -17.952456    2.365201
C    4.097405  -18.835469    1.931178
C    5.814366  -15.588920    2.638039
C    4.886597  -16.642220    2.731099
C    6.222753  -13.625929    1.365549
C    5.386511  -14.441795    1.931178
C    7.048204  -12.907821   -0.706860
C    6.070754  -13.293097    0.000000
C    8.639039  -13.442607   -2.365201
C    7.386966  -13.528218   -1.931178
C   10.817961  -14.451104   -2.638039
C    9.377311  -14.591380   -2.731099
C   12.907310  -14.895830   -1.365549
C   11.551668  -15.431221   -1.931178
C    1.425560  -19.931932    0.706860
C   -0.000000  -20.075906   -0.000000
C    2.662761  -18.519912    2.365201
C    1.375133  -19.226873    1.931178
C    3.536650  -16.257717    2.638039
C    2.468423  -17.168262    2.731099
C    4.220243  -14.372827    1.365549
C    3.276402  -15.061379    1.931178
C    5.139489  -13.779502   -0.706860
C    4.117157  -14.021750    0.000000
C    6.638024  -14.535244   -2.365201
C    5.386511  -14.441795   -1.931178
C    8.651243  -15.843569   -2.638039
C    7.205293  -15.777391   -2.731099
C   10.656035  -16.581114   -1.365549
C    9.237997  -16.918128   -1.931178
C   -1.425560  -19.931932    0.706860
C   -2.857099  -19.871562   -0.000000
C   -0.000000  -18.710356    2.365201
C   -1.375133  -19.226873    1.931178
C    1.186938  -16.595555    2.638039
C   -0.000000  -17.344807    2.731099
C    2.131820  -14.827135    1.365549
C    1.099596  -15.374356    1.931178
C    3.126148  -14.370672   -0.706860
C    2.079748  -14.464962    0.000000
C    4.501877  -15.331985   -2.365201
C    3.276402  -15.061379   -1.931178
C    6.308411  -16.913505   -2.638039
C    4.886597  -16.642220   -2.731099
C    8.187833  -17.928854   -1.365549
C    6.736266  -18.060629   -1.931178
C   -4.247659  -19.526175    0.706860
C   -5.656036  -19.262691   -0.000000
C   -2.662761  -18.519912    2.365201
C   -4.097405  -18.835469    1.931178
C   -1.186938  -16.595555    2.638039
C   -2.468423  -17.168262    2.731099
C   -0.000000  -14.979606    1.365549
C   -1.099596  -15.374356    1.931178
C    1.049169  -14.669297   -0.706860
C   -0.000000  -14.613708    0.000000
C    2.274085  -15.816612   -2.365201
C    1.099596  -15.374356   -1.931178
C    3.837158  -17.639130   -2.638039
C    2.468423  -17.168262   -2.731099
C    5.552951  -18.911614   -1.365549
C    4.097405  -18.835469   -1.931178
C   -6.983289  -18.722922    0.706860
C   -8.339833  -18.261686   -0.000000
C   -5.271317  -17.952456    2.365201
C   -6.736266  -18.060629    1.931178
C   -3.536650  -16.257717    2.638039
C   -4.886597  -16.642220    2.731099
C   -2.131820  -14.827135    1.365549
C   -3.276402  -15.061379    1.931178
C   -1.049169  -14.669297   -0.706860
C   -2.079748  -14.464962    0.000000
C   -0.000000  -15.979258   -2.365201
C   -1.099596  -15.374356   -1.931178
C    1.287791  -18.005674   -2.638039
C   -0.000000  -17.344807   -2.731099
C    2.805027  -19.509389   -1.365549
C    1.375133  -19.226873   -1.931178
C   -9.576759  -17.538524    0.706860
C  -10.853854  -16.888927   -0.000000
C   -7.772563  -17.019539    2.365201
C   -9.237997  -16.918128    1.931178
C   -5.814366  -15.588920    2.638039
C   -7.205293  -15.777391    2.731099
C   -4.220243  -14.372827    1.365549
C   -5.386511  -14.441795    1.931178
C   -3.126148  -14.370672   -0.706860
C   -4.117157  -14.021750    0.000000
C   -2.274085  -15.816612   -2.365201
C   -3.276402  -15.061379   -1.931178
C   -1.287791  -18.005674   -2.638039
C   -2.468423  -17.168262   -2.731099
C   -0.000000  -19.710008   -1.365549
C   -1.375133  -19.226873   -1.931178
C  -11.975273  -15.997092    0.706860
C  -13.146922  -15.172357   -0.000000
C  -10.115582  -15.740153    2.365201
C  -11.551668  -15.431221    1.931178
C   -7.973719  -14.602776    2.638039
C   -9.377311  -14.591380    2.731099
C   -6.222753  -13.625929    1.365549
C   -7.386966  -13.528218    1.931178
C   -5.139489  -13.779502   -0.706860
C   -6.070754  -13.293097    0.000000
C   -4.501877  -15.331985   -2.365201
C   -5.386511  -14.441795   -1.931178
C   -3.837158  -17.639130   -2.638039
C   -4.886597  -16.642220   -2.731099
C   -2.805027  -19.509389   -1.365549
C   -4.097405  -18.835469   -1.931178
C  -14.130006  -14.130006    0.706860
C  -15.172357  -13.146922   -0.000000
C  -12.252678  -14.140344    2.365201
C  -13.630180  -13.630180    1.931178
C   -9.970750  -13.319362    2.638039
C  -11.358433  -13.108331    2.731099
C   -8.098586  -12.601647    1.365549
C   -9.237043  -12.339245    1.931178
C   -7.048204  -12.907821   -0.706860
C   -7.900767  -12.293834    0.000000
C   -6.638024  -14.535244   -2.365201
C   -7.386966  -13.528218   -1.931178
C   -6.308411  -16.913505   -2.638039
C   -7.205293  -15.777391   -2.731099
C   -5.552951  -18.911614   -1.365549
C   -6.736266  -18.060629   -1.931178
C  -15.997092  -11.975273    0.706860
C  -16.888927  -10.853854   -0.000000
C  -14.140344  -12.252678    2.365201
C  -15.431221  -11.551668    1.931178
C  -11.764805  -11.764805    2.638039
C  -13.108331  -11.358433    2.731099
C   -9.809556  -11.320831    1.365549
C  -10.899081  -10.899081    1.931178
C   -8.813438  -11.773374   -0.706860
C   -9.569944  -11.044304    0.000000
C   -8.639039  -13.442607   -2.365201
C   -9.237043  -12.339245   -1.931178
C   -8.651243  -15.843569   -2.638039
C   -9.377311  -14.591380   -2.731099
C   -8.187833  -17.928854   -1.365549
C   -9.237997  -16.918128   -1.931178
C  -17.538524   -9.576759    0.706860
C  -18.261686   -8.339833   -0.000000
C  -15.740153  -10.115582    2.365201
C  -16.918128   -9.237997    1.931178
C  -13.319362   -9.970750    2.638039
C  -14.591380   -9.377311    2.731099
C  -11.320831   -9.809556    1.365549
C  -12.339245   -9.237043    1.931178
C  -10.399255  -10.399255   -0.706860
C  -11.044304   -9.569944    0.000000
C  -10.464188  -12.076317   -2.365201
C  -10.899081  -10.899081   -1.931178
C  -10.817961  -14.451104   -2.638039
C  -11.358433  -13.108331   -2.731099
C  -10.656035  -16.581114   -1.365549
C  -11.551668  -15.431221   -1.931178
C  -18.722922   -6.983289    0.706860
C  -19.262691   -5.656036   -0.000000
C  -17.019539   -7.772563    2.365201
C  -18.060629   -6.736266    1.931178
C  -14.602776   -7.973719    2.638039
C  -15.777391   -7.205293    2.731099
C  -12.601647   -8.098586    1.365549
C  -13.528218   -7.386966    1.931178
C  -11.773374   -8.813438   -0.706860
C  -12.293834   -7.900767    0.000000
C  -12.076317  -10.464188   -2.365201
C  -12.339245   -9.237043   -1.931178
C  -12.764456  -12.764456   -2.638039
C  -13.108331  -11.358433   -2.731099
C  -12.907310  -14.895830   -1.365549
C  -13.630180  -13.630180   -1.931178
C  -19.526175   -4.247659    0.706860
C  -19.871562   -2.857099   -0.000000
C  -17.952456   -5.271317    2.365201
C  -18.835469   -4.097405    1.931178
C  -15.588920   -5.814366    2.638039
C  -16.642220   -4.886597    2.731099
C  -13.625929   -6.222753    1.365549
C  -14.441795   -5.386511    1.931178
C  -12.907821   -7.048204   -0.706860
C  -13.293097   -6.070754    0.000000
C  -13.442607   -8.639039   -2.365201
C  -13.528218   -7.386966   -1.931178
C  -14.451104  -10.817961   -2.638039
C  -14.591380   -9.377311   -2.731099
C  -14.895830  -12.907310   -1.365549
C  -15.431221  -11.551668   -1.931178
C  -19.931932   -1.425560    0.706860
C  -20.075906    0.000000   -0.000000
C  -18.519912   -2.662761    2.365201
C  -19.226873   -1.375133    1.931178
C  -16.257717   -3.536650    2.638039
C  -17.168262   -2.468423    2.731099
C  -14.372827   -4.220243    1.365549
C  -15.061379   -3.276402    1.931178
C  -13.779502   -5.139489   -0.706860
C  -14.021750   -4.117157    0.000000
C  -14.535244   -6.638024   -2.365201
C  -14.441795   -5.386511   -1.931178
C  -15.843569   -8.651243   -2.638039
C  -15.777391   -7.205293   -2.731099
C  -16.581114  -10.656035   -1.365549
C  -16.918128   -9.237997   -1.931178
C  -19.931932    1.425560    0.706860
C  -19.871562    2.857099   -0.000000
C  -18.710356   -0.000000    2.365201
C  -19.226873    1.375133    1.931178
C  -16.595555   -1.186938    2.638039
C  -17.344807    0.000000    2.731099
C  -14.827135   -2.131820    1.365549
C  -15.374356   -1.099596    1.931178
C  -14.370672   -3.126148   -0.706860
C  -14.464962   -2.079748    0.000000
C  -15.331985   -4.501877   -2.365201
C  -15.061379   -3.276402   -1.931178
C  -16.913505   -6.308411   -2.638039
C  -16.642220   -4.886597   -2.731099
C  -17.928854   -8.187833   -1.365549
C  -18.060629   -6.736266   -1.931178
C  -19.526175    4.247659    0.706860
C  -19.262691    5.656036   -0.000000
C  -18.519912    2.662761    2.365201
C  -18.835469    4.097405    1.931178
C  -16.595555    1.186938    2.638039
C  -17.168262    2.468423    2.731099
C  -14.979606    0.000000    1.365549
C  -15.374356    1.099596    1.931178
C  -14.669297   -1.049169   -0.706860
C  -14.613708    0.000000    0.000000
C  -15.816612   -2.274085   -2.365201
C  -15.374356   -1.099596   -1.931178
C  -17.639130   -3.837158   -2.638039
C  -17.168262   -2.468423   -2.731099
C  -18.911614   -5.552951   -1.365549
C  -18.835469   -4.097405   -1.931178
C  -18.722922    6.983289    0.706860
C  -18.261686    8.339833   -0.000000
C  -17.952456    5.271317    2.365201
C  -18.060629    6.736266    1.931178
C  -16.257717    3.536650    2.638039
C  -16.642220    4.886597    2.731099
C  -14.827135    2.131820    1.365549
C  -15.061379    3.276402    1.931178
C  -14.669297    1.049169   -0.706860
C  -14.464962    2.079748    0.000000
C  -15.979258    0.000000   -2.365201
C  -15.374356    1.099596   -1.931178
C  -18.005674   -1.287791   -2.638039
C  -17.344807    0.000000   -2.731099
C  -19.509389   -2.805027   -1.365549
C  -19.226873   -1.375133   -1.931178
C  -17.538524    9.576759    0.706860
C  -16.888927   10.853854   -0.000000
C  -17.019539    7.772563    2.365201
C  -16.918128    9.237997    1.931178
C  -15.588920    5.814366    2.638039
C  -15.777391    7.205293    2.731099
C  -14.372827    4.220243    1.365549
C  -14.441795    5.386511    1.931178
C  -14.370672    3.126148   -0.706860
C  -14.021750    4.117157    0.000000
C  -15.816612    2.274085   -2.365201
C  -15.061379    3.276402   -1.931178
C  -18.005674    1.287791   -2.638039
C  -17.168262    2.468423   -2.731099
C  -19.710008    0.000000   -1.365549
C  -19.226873    1.375133   -1.931178
C  -15.997092   11.975273    0.706860
C  -15.172357   13.146922   -0.000000
C  -15.740153   10.115582    2.365201
C  -15.431221   11.551668    1.931178
C  -14.602776    7.973719    2.638039
C  -14.591380    9.377311    2.731099
C  -13.625929    6.222753    1.365549
C  -13.528218    7.386966    1.931178
C  -13.779502    5.139489   -0.706860
C  -13.293097    6.070754    0.000000
C  -15.331985    4.501877   -2.365201
C  -14.441795    5.386511   -1.931178
C  -17.639130    3.837158   -2.638039
C  -16.642220    4.886597   -2.731099
C  -19.509389    2.805027   -1.365549
C  -18.835469    4.097405   -1.931178
C  -14.130006   14.130006    0.706860
C  -13.146922   15.172357   -0.000000
C  -14.140344   12.252678    2.365201
C  -13.630180   13.630180    1.931178
C  -13.319362    9.970750    2.638039
C  -13.108331   11.358433    2.731099
C  -12.601647    8.098586    1.365549
C  -12.339245    9.237043    1.931178
C  -12.907821    7.048204   -0.706860
C  -12.293834    7.900767    0.000000
C  -14.535244    6.638024   -2.365201
C  -13.528218    7.386966   -1.931178
C  -16.913505    6.308411   -2.638039
C  -15.777391    7.205293   -2.731099
C  -18.911614    5.552951   -1.365549
C  -18.060629    6.736266   -1.931178
C  -11.975273   15.997092    0.706860
C  -10.853854   16.888927   -0.000000
C  -12.252678   14.140344    2.365201
C  -11.551668   15.431221    1.931178
C  -11.764805   11.764805    2.638039
C  -11.358433   13.108331    2.731099
C  -11.320831    9.809556    1.365549
C  -10.899081   10.899081    1.931178
C  -11.773374    8.813438   -0.706860
C  -11.044304    9.569944    0.000000
C  -13.442607    8.639039   -2.365201
C  -12.339245    9.237043   -1.931178
C  -15.843569    8.651243   -2.638039
C  -14.591380    9.377311   -2.731099
C  -17.928854    8.187833   -1.365549
C  -16.918128    9.237997   -1.931178
C   -9.576759   17.538524    0.706860
C   -8.339833   18.261686   -0.000000
C  -10.115582   15.740153    2.365201
C   -9.237997   16.918128    1.931178
C   -9.970750   13.319362    2.638039
C   -9.377311   14.591380    2.731099
C   -9.809556   11.320831    1.365549
C   -9.237043   12.339245    1.931178
C  -10.399255   10.399255   -0.706860
C   -9.569944   11.044304    0.000000
C  -12.076317   10.464188   -2.365201
C  -10.899081   10.899081   -1.931178
C  -14.451104   10.817961   -2.638039
C  -13.108331   11.358433   -2.731099
C  -16.581114   10.656035   -1.365549
C  -15.431221   11.551668   -1.931178
C   -6.983289   18.722922    0.706860
C   -5.656036   19.262691   -0.000000
C   -7.772563   17.019539    2.365201
C   -6.736266   18.060629    1.931178
C   -7.973719   14.602776    2.638039
C   -7.205293   15.777391    2.731099
C   -8.098586   12.601647    1.365549
C   -7.386966   13.528218    1.931178
C   -8.813438   11.773374   -0.706860
C   -7.900767   12.293834    0.000000
C  -10.464188   12.076317   -2.365201
C   -9.237043   12.339245   -1.931178
C  -12.764456   12.764456   -2.638039
C  -11.358433   13.108331   -2.731099
C  -14.895830   12.907310   -1.365549
C  -13.630180   13.630180   -1.931178
C   -4.247659   19.526175    0.706860
C   -2.857099   19.871562   -0.000000
C   -5.271317   17.952456    2.365201
C   -4.097405   18.835469    1.931178
C   -5.814366   15.588920    2.638039
C   -4.886597   16.642220    2.731099
C   -6.222753   13.625929    1.365549
C   -5.386511   14.441795    1.931178
C   -7.048204   12.907821   -0.706860
C   -6.070754   13.293097    0.000000
C   -8.639039   13.442607   -2.365201
C   -7.386966   13.528218   -1.931178
C  -10.817961   14.451104   -2.638039
C   -9.377311   14.591380   -2.731099
C  -12.907310   14.895830   -1.365549
C  -11.551668   15.431221   -1.931178
C   -1.425560   19.931932    0.706860
C    0.000000   20.075906   -0.000000
C   -2.662761   18.519912    2.365201
C   -1.375133   19.226873    1.931178
C   -3.536650   16.257717    2.638039
C   -2.468423   17.168262    2.731099
C   -4.220243   14.372827    1.365549
C   -3.276402   15.061379    1.931178
C   -5.139489   13.779502   -0.706860
C   -4.117157   14.021750    0.000000
C   -6.638024   14.535244   -2.365201
C   -5.386511   14.441795   -1.931178
C   -8.651243   15.843569   -2.638039
C   -7.205293   15.777391   -2.731099
C  -10.656035   16.581114   -1.365549
C   -9.237997   16.918128   -1.931178
C    1.425560   19.931932    0.706860
C    2.857099   19.871562   -0.000000
C    0.000000   18.710356    2.365201
C    1.375133   19.226873    1.931178
C   -1.186938   16.595555    2.638039
C    0.000000   17.344807    2.731099
C   -2.131820   14.827135    1.365549
C   -1.099596   15.374356    1.931178
C   -3.126148   14.370672   -0.706860
C   -2.079748   14.464962    0.000000
C   -4.501877   15.331985   -2.365201
C   -3.276402   15.061379   -1.931178
C   -6.308411   16.913505   -2.638039
C   -4.886597   16.642220   -2.731099
C   -8.187833   17.928854   -1.365549
C   -6.736266   18.060629   -1.931178
C    4.247659   19.526175    0.706860
C    5.656036   19.262691   -0.000000
C    2.662761   18.519912    2.365201
C    4.097405   18.835469    1.931178
C    1.186938   16.595555    2.638039
C    2.468423   17.168262    2.731099
C   -0.000000   14.979606    1.365549
C    1.099596   15.374356    1.931178
C   -1.049169   14.669297   -0.706860
C    0.000000   14.613708    0.000000
C   -2.274085   15.816612   -2.365201
C   -1.099596   15.374356   -1.931178
C   -3.837158   17.639130   -2.638039
C   -2.468423   17.168262   -2.731099
C   -5.552951   18.911614   -1.365549
C   -4.097405   18.835469   -1.931178
C    6.983289   18.722922    0.706860
C    8.339833   18.261686   -0.000000
C    5.271317   17.952456    2.365201
C    6.736266   18.060629    1.931178
C    3.536650   16.257717    2.638039
C    4.886597   16.642220    2.731099
C    2.131820   14.827135    1.365549
C    3.276402   15.061379    1.931178
C    1.049169   14.669297   -0.706860
C    2.079748   14.464962    0.000000
C   -0.000000   15.979258   -2.365201
C    1.099596   15.374356   -1.931178
C   -1.287791   18.005674   -2.638039
C    0.000000   17.344807   -2.731099
C   -2.805027   19.509389   -1.365549
C   -1.375133   19.226873   -1.931178
C    9.576759   17.538524    0.706860
C   10.853854   16.888927   -0.000000
C    7.772563   17.019539    2.365201
C    9.237997   16.918128    1.931178
C    5.814366   15.588920    2.638039
C    7.205293   15.777391    2.731099
C    4.220243   14.372827    1.365549
C    5.386511   14.441795    1.931178
C    3.126148   14.370672   -0.706860
C    4.117157   14.021750    0.000000
C    2.274085   15.816612   -2.365201
C    3.276402   15.061379   -1.931178
C    1.287791   18.005674   -2.638039
C    2.468423   17.168262   -2.731099
C   -0.000000   19.710008   -1.365549
C    1.375133   19.226873   -1.931178
C   11.975273   15.997092    0.706860
C   13.146922   15.172357   -0.000000
C   10.115582   15.740153    2.365201
C   11.551668   15.431221    1.931178
C    7.973719   14.602776    2.638039
C    9.377311   14.591380    2.731099
C    6.222753   13.625929    1.365549
C    7.386966   13.528218    1.931178
C    5.139489   13.779502   -0.706860
C    6.070754   13.293097    0.000000
C    4.501877   15.331985   -2.365201
C    5.386511   14.441795   -1.931178
C    3.837158   17.639130   -2.638039
C    4.886597   16.642220   -2.731099
C    2.805027   19.509389   -1.365549
C    4.097405   18.835469   -1.931178
C   14.130006   14.130006    0.706860
C   15.172357   13.146922   -0.000000
C   12.252678   14.140344    2.365201
C   13.630180   13.630180    1.931178
C    9.970750   13.319362    2.638039
C   11.358433   13.108331    2.731099
C    8.098586   12.601647    1.365549
C    9.237043   12.339245    1.931178
C    7.048204   12.907821   -0.706860
C    7.900767   12.293834    0.000000
C    6.638024   14.535244   -2.365201
C    7.386966   13.528218   -1.931178
C    6.308411   16.913505   -2.638039
C    7.205293   15.777391   -2.731099
C    5.552951   18.911614   -1.365549
C    6.736266   18.060629   -1.931178
C   15.997092   11.975273    0.706860
C   16.888927   10.853854   -0.000000
C   14.140344   12.252678    2.365201
C   15.431221   11.551668    1.931178
C   11.764805   11.764805    2.638039
C   13.108331   11.358433    2.731099
C    9.809556   11.320831    1.365549
C   10.899081   10.899081    1.931178
C    8.813438   11.773374   -0.706860
C    9.569944   11.044304    0.000000
C    8.639039   13.442607   -2.365201
C    9.237043   12.339245   -1.931178
C    8.651243   15.843569   -2.638039
C    9.377311   14.591380   -2.731099
C    8.187833   17.928854   -1.365549
C    9.237997   16.918128   -1.931178
C   17.538524    9.576759    0.706860
C   18.261686    8.339833   -0.000000
C   15.740153   10.115582    2.365201
C   16.918128    9.237997    1.931178
C   13.319362    9.970750    2.638039
C   14.591380    9.377311    2.731099
C   11.320831    9.809556    1.365549
C   12.339245    9.237043    1.931178
C   10.399255   10.399255   -0.706860
C   11.044304    9.569944    0.000000
C   10.464188   12.076317   -2.365201
C   10.899081   10.899081   -1.931178
C   10.817961   14.451104   -2.638039
C   11.358433   13.108331   -2.731099
C   10.656035   16.581114   -1.365549
C   11.551668   15.431221   -1.931178
C   18.722922    6.983289    0.706860
C   19.262691    5.656036   -0.000000
C   17.019539    7.772563    2.365201
C   18.060629    6.736266    1.931178
C   14.602776    7.973719    2.638039
C   15.777391    7.205293    2.731099
C   12.601647    8.098586    1.365549
C   13.528218    7.386966    1.931178
C   11.773374    8.813438   -0.706860
C   12.293834    7.900767    0.000000
C   12.076317   10.464188   -2.365201
C   12.339245    9.237043   -1.931178
C   12.764456   12.764456   -2.638039
C   13.108331   11.358433   -2.731099
C   12.907310   14.895830   -1.365549
C   13.630180   13.630180   -1.931178
C   19.526175    4.247659    0.706860
C   19.871562    2.857099   -0.000000
C   17.952456    5.271317    2.365201
C   18.835469    4.097405    1.931178
C   15.588920    5.814366    2.638039
C   16.642220    4.886597    2.731099
C   13.625929    6.222753    1.365549
C   14.441795    5.386511    1.931178
C   12.907821    7.048204   -0.706860
C   13.293097    6.070754    0.000000
C   13.442607    8.639039   -2.365201
C   13.528218    7.386966   -1.931178
C   14.451104   10.817961   -2.638039
C   14.591380    9.377311   -2.731099
C   14.895830   12.907310   -1.365549
C   15.431221   11.551668   -1.931178
C   19.931932    1.425560    0.706860
C   20.075906    0.000000    0.000000
C   18.519912    2.662761    2.365201
C   19.226873    1.375133    1.931178
C   16.257717    3.536650    2.638039
C   17.168262    2.468423    2.731099
C   14.372827    4.220243    1.365549
C   15.061379    3.276402    1.931178
C   13.779502    5.139489   -0.706860
C   14.021750    4.117157    0.000000
C   14.535244    6.638024   -2.365201
C   14.441795    5.386511   -1.931178
C   15.843569    8.651243   -2.638039
C   15.777391    7.205293   -2.731099
C   16.581114   10.656035   -1.365549
C   16.918128    9.237997   -1.931178
C   18.710356    0.000000    2.365201
C   16.595555    1.186938    2.638039
C   17.344807    0.000000    2.731099
C   14.827135    2.131820    1.365549
C   15.374356    1.099596    1.931178
C   14.370672    3.126148   -0.706860
C   14.464962    2.079748    0.000000
C   15.331985    4.501877   -2.365201
C   15.061379    3.276402   -1.931178
C   16.913505    6.308411   -2.638039
C   16.642220    4.886597   -2.731099
C   17.928854    8.187833   -1.365549
C   18.060629    6.736266   -1.931178
C   14.979606    0.000000    1.365549
C   14.669297    1.049169   -0.706860
C   14.613708    0.000000    0.000000
C   15.816612    2.274085   -2.365201
C   15.374356    1.099596   -1.931178
C   17.639130    3.837158   -2.638039
C   17.168262    2.468423   -2.731099
C   18.911614    5.552951   -1.365549
C   18.835469    4.097405   -1.931178
C   15.979258    0.000000   -2.365201
C   18.005674    1.287791   -2.638039
C   17.344807    0.000000   -2.731099
C   19.509389    2.805027   -1.365549
C   19.226873    1.375133   -1.931178
C   19.710008    0.000000   -1.365549
